/*--------------------------------*- C++ -*----------------------------------*\
| =========                 |                                                 |
| \\      /  F ield         | OpenFOAM: The Open Source CFD Toolbox           |
|  \\    /   O peration     | Version:  v2012                                 |
|   \\  /    A nd           | Website:  www.openfoam.com                      |
|    \\/     M anipulation  |                                                 |
\*---------------------------------------------------------------------------*/
FoamFile
{
    version     2.0;
    format      ascii;
    class       dictionary;
    location    "../constant/controlPoints";
    object      airfoilcpsBsplines0;
}
// * * * * * * * * * * * * * * * * * * * * * * * * * * * * * * * * * * * * * //

controlPoints   108 ( ( -0.005453 -0.016814 -0.05 ) ( 0.010972 -0.00214 -0.05 ) ( 0.021417 0.006016 -0.05 ) ( 0.032791 0.012566 -0.05 ) ( 0.045048 0.017588 -0.05 ) ( 0.06755899999999999 0.02416 -0.05 ) ( -0.005453 -0.012054 -0.05 ) ( 0.010972 0.00262 -0.05 ) ( 0.021417 0.010776 -0.05 ) ( 0.032791 0.017326 -0.05 ) ( 0.045048 0.022348 -0.05 ) ( 0.06755899999999999 0.02892 -0.05 ) ( -0.005453 -0.007294 -0.05 ) ( 0.010972 0.00738 -0.05 ) ( 0.021417 0.015536 -0.05 ) ( 0.032791 0.022086 -0.05 ) ( 0.045048 0.027108 -0.05 ) ( 0.06755899999999999 0.03368 -0.05 ) ( -0.005453 -0.002534 -0.05 ) ( 0.010972 0.01214 -0.05 ) ( 0.021417 0.020296 -0.05 ) ( 0.032791 0.026846 -0.05 ) ( 0.045048 0.031868 -0.05 ) ( 0.06755899999999999 0.03844 -0.05 ) ( -0.005453 0.002226 -0.05 ) ( 0.010972 0.0169 -0.05 ) ( 0.021417 0.025056 -0.05 ) ( 0.032791 0.031606 -0.05 ) ( 0.045048 0.036628 -0.05 ) ( 0.06755899999999999 0.0432 -0.05 ) ( -0.005453 0.006986 -0.05 ) ( 0.010972 0.02166 -0.05 ) ( 0.021417 0.029816 -0.05 ) ( 0.032791 0.036366 -0.05 ) ( 0.045048 0.041388 -0.05 ) ( 0.06755899999999999 0.04796 -0.05 ) ( -0.005453 -0.016814 0 ) ( 0.010972 -0.00214 0 ) ( 0.021417 0.006016 0 ) ( 0.032791 0.012566 0 ) ( 0.045048 0.017588 0 ) ( 0.06755899999999999 0.02416 0 ) ( -0.005453 -0.012054 0 ) ( 0.010972 0.00262 0 ) ( 0.021417 0.010776 0 ) ( 0.032791 0.017326 0 ) ( 0.045048 0.022348 0 ) ( 0.06755899999999999 0.02892 0 ) ( -0.005453 -0.007294 0 ) ( 0.010972 0.00738 0 ) ( 0.021417 0.015536 0 ) ( 0.032791 0.022086 0 ) ( 0.045048 0.027108 0 ) ( 0.06755899999999999 0.03368 0 ) ( -0.005453 -0.002534 0 ) ( 0.010972 0.01214 0 ) ( 0.021417 0.020296 0 ) ( 0.032791 0.026846 0 ) ( 0.045048 0.031868 0 ) ( 0.06755899999999999 0.03844 0 ) ( -0.005453 0.002226 0 ) ( 0.010972 0.0169 0 ) ( 0.021417 0.025056 0 ) ( 0.032791 0.031606 0 ) ( 0.045048 0.036628 0 ) ( 0.06755899999999999 0.0432 0 ) ( -0.005453 0.006986 0 ) ( 0.010972 0.02166 0 ) ( 0.021417 0.029816 0 ) ( 0.032791 0.036366 0 ) ( 0.045048 0.041388 0 ) ( 0.06755899999999999 0.04796 0 ) ( -0.005453 -0.016814 0.05 ) ( 0.010972 -0.00214 0.05 ) ( 0.021417 0.006016 0.05 ) ( 0.032791 0.012566 0.05 ) ( 0.045048 0.017588 0.05 ) ( 0.06755899999999999 0.02416 0.05 ) ( -0.005453 -0.012054 0.05 ) ( 0.010972 0.00262 0.05 ) ( 0.021417 0.010776 0.05 ) ( 0.032791 0.017326 0.05 ) ( 0.045048 0.022348 0.05 ) ( 0.06755899999999999 0.02892 0.05 ) ( -0.005453 -0.007294 0.05 ) ( 0.010972 0.00738 0.05 ) ( 0.021417 0.015536 0.05 ) ( 0.032791 0.022086 0.05 ) ( 0.045048 0.027108 0.05 ) ( 0.06755899999999999 0.03368 0.05 ) ( -0.005453 -0.002534 0.05 ) ( 0.010972 0.01214 0.05 ) ( 0.021417 0.020296 0.05 ) ( 0.032791 0.026846 0.05 ) ( 0.045048 0.031868 0.05 ) ( 0.06755899999999999 0.03844 0.05 ) ( -0.005453 0.002226 0.05 ) ( 0.010972 0.0169 0.05 ) ( 0.021417 0.025056 0.05 ) ( 0.032791 0.031606 0.05 ) ( 0.045048 0.036628 0.05 ) ( 0.06755899999999999 0.0432 0.05 ) ( -0.005453 0.006986 0.05 ) ( 0.010972 0.02166 0.05 ) ( 0.021417 0.029816 0.05 ) ( 0.032791 0.036366 0.05 ) ( 0.045048 0.041388 0.05 ) ( 0.06755899999999999 0.04796 0.05 ) );


// ************************************************************************* //
