/*--------------------------------*- C++ -*----------------------------------*\
| =========                 |                                                 |
| \\      /  F ield         | OpenFOAM: The Open Source CFD Toolbox           |
|  \\    /   O peration     | Version:  v2012                                 |
|   \\  /    A nd           | Website:  www.openfoam.com                      |
|    \\/     M anipulation  |                                                 |
\*---------------------------------------------------------------------------*/
FoamFile
{
    version     2.0;
    format      ascii;
    class       dictionary;
    location    "../constant/controlPoints";
    object      airfoilcpsBsplines3;
}
// * * * * * * * * * * * * * * * * * * * * * * * * * * * * * * * * * * * * * //

controlPoints   108 ( ( -0.005453 -0.016814 -0.05 ) ( 0.010972 -0.00214 -0.05 ) ( 0.021417 0.006016 -0.05 ) ( 0.032791 0.012566 -0.05 ) ( 0.045048 0.017588 -0.05 ) ( 0.06755899999999999 0.02416 -0.05 ) ( -0.005453 -0.012054 -0.05 ) ( 0.010972 0.00262 -0.05 ) ( 0.021417 0.010776 -0.05 ) ( 0.032791 0.017326 -0.05 ) ( 0.045048 0.022348 -0.05 ) ( 0.06755899999999999 0.02892 -0.05 ) ( -0.005453 -0.007294 -0.05 ) ( 0.010972 0.00738 -0.05 ) ( 0.021417 0.015536 -0.05 ) ( 0.032791 0.022086 -0.05 ) ( 0.045048 0.027108 -0.05 ) ( 0.06755899999999999 0.03368 -0.05 ) ( -0.005453 -0.002534 -0.05 ) ( 0.010972 0.01214 -0.05 ) ( 0.021417 0.020296 -0.05 ) ( 0.032791 0.026846 -0.05 ) ( 0.045048 0.031868 -0.05 ) ( 0.06755899999999999 0.03844 -0.05 ) ( -0.005453 0.002226 -0.05 ) ( 0.010972 0.0169 -0.05 ) ( 0.021417 0.025056 -0.05 ) ( 0.032791 0.031606 -0.05 ) ( 0.045048 0.036628 -0.05 ) ( 0.06755899999999999 0.0432 -0.05 ) ( -0.005453 0.006986 -0.05 ) ( 0.010972 0.02166 -0.05 ) ( 0.021417 0.029816 -0.05 ) ( 0.032791 0.036366 -0.05 ) ( 0.045048 0.041388 -0.05 ) ( 0.06755899999999999 0.04796 -0.05 ) ( -0.005453 -0.016814 0 ) ( 0.010972 -0.00214 0 ) ( 0.021417 0.006016 0 ) ( 0.032791 0.012566 0 ) ( 0.045048 0.017588 0 ) ( 0.06755899999999999 0.02416 0 ) ( -0.005453 -0.012054 0 ) ( 0.01099980614759509 0.002572956032983623 0 ) ( 0.0214279510498061 0.01075770993654467 0 ) ( 0.03279530845158929 0.01731856328331982 0 ) ( 0.045053881985643 0.02233818616363144 0 ) ( 0.06755899999999999 0.02892 0 ) ( -0.005453 -0.007294 0 ) ( 0.01100064074616056 0.007330295123041023 0 ) ( 0.02142250283279631 0.01553300496034493 0 ) ( 0.03278648453612161 0.02209012675743945 0 ) ( 0.04505806834334419 0.02709215179476047 0 ) ( 0.06755899999999999 0.03368 0 ) ( -0.005453 -0.002534 0 ) ( 0.01105351533200115 0.01210322281341967 0 ) ( 0.02150384432846248 0.02023129702172151 0 ) ( 0.03282289311225561 0.0268154763302778 0 ) ( 0.04504901776925449 0.03187863099839452 0 ) ( 0.06755899999999999 0.03844 0 ) ( -0.005453 0.002226 0 ) ( 0.01091827306027216 0.01702712889055565 0 ) ( 0.02142023555914523 0.02513351442539895 0 ) ( 0.03278874500422058 0.03164701549116781 0 ) ( 0.0450418933619583 0.03664645402756368 0 ) ( 0.06755899999999999 0.0432 0 ) ( -0.005453 0.006986 0 ) ( 0.010972 0.02166 0 ) ( 0.021417 0.029816 0 ) ( 0.032791 0.036366 0 ) ( 0.045048 0.041388 0 ) ( 0.06755899999999999 0.04796 0 ) ( -0.005453 -0.016814 0.05 ) ( 0.010972 -0.00214 0.05 ) ( 0.021417 0.006016 0.05 ) ( 0.032791 0.012566 0.05 ) ( 0.045048 0.017588 0.05 ) ( 0.06755899999999999 0.02416 0.05 ) ( -0.005453 -0.012054 0.05 ) ( 0.010972 0.00262 0.05 ) ( 0.021417 0.010776 0.05 ) ( 0.032791 0.017326 0.05 ) ( 0.045048 0.022348 0.05 ) ( 0.06755899999999999 0.02892 0.05 ) ( -0.005453 -0.007294 0.05 ) ( 0.010972 0.00738 0.05 ) ( 0.021417 0.015536 0.05 ) ( 0.032791 0.022086 0.05 ) ( 0.045048 0.027108 0.05 ) ( 0.06755899999999999 0.03368 0.05 ) ( -0.005453 -0.002534 0.05 ) ( 0.010972 0.01214 0.05 ) ( 0.021417 0.020296 0.05 ) ( 0.032791 0.026846 0.05 ) ( 0.045048 0.031868 0.05 ) ( 0.06755899999999999 0.03844 0.05 ) ( -0.005453 0.002226 0.05 ) ( 0.010972 0.0169 0.05 ) ( 0.021417 0.025056 0.05 ) ( 0.032791 0.031606 0.05 ) ( 0.045048 0.036628 0.05 ) ( 0.06755899999999999 0.0432 0.05 ) ( -0.005453 0.006986 0.05 ) ( 0.010972 0.02166 0.05 ) ( 0.021417 0.029816 0.05 ) ( 0.032791 0.036366 0.05 ) ( 0.045048 0.041388 0.05 ) ( 0.06755899999999999 0.04796 0.05 ) );


// ************************************************************************* //
