/*--------------------------------*- C++ -*----------------------------------*\
| =========                 |                                                 |
| \\      /  F ield         | OpenFOAM: The Open Source CFD Toolbox           |
|  \\    /   O peration     | Version:  v1912                                 |
|   \\  /    A nd           | Website:  www.openfoam.com                      |
|    \\/     M anipulation  |                                                 |
\*---------------------------------------------------------------------------*/
FoamFile
{
    version     2.0;
    format      ascii;
    class       dictionary;
    location    "system";
    object      fvSchemes;
}
// * * * * * * * * * * * * * * * * * * * * * * * * * * * * * * * * * * * * * //

ddtSchemes
{
    default         steadyState;
}

gradSchemes
{
    default		Gauss linear;
    limitedGrad     cellLimited Gauss linear 1;
    
    // gradUATC	limitedGrad;
    // gradUaas1ATC	limitedGrad;
    
    // gradUConv        limitedGrad;
    // gradNuTildaConv  limitedGrad;
    // gradDConv        limitedGrad;

    // gradUaas1Conv       limitedGrad;
    // gradNuaTildaas1Conv limitedGrad;
    
}

divSchemes
{
    default         none;

    div(phi,U)      bounded Gauss linearUpwind limitedGrad;
    div(phi,nuTilda) bounded Gauss linearUpwind limitedGrad;
    
    div((nuEff*dev2(T(grad(U))))) Gauss linear;
    div((nuEff*dev(grad(Uaas1).T()))) Gauss linear;
    div((nuEff*dev(grad(Uavol).T()))) Gauss linear;
    div((momentumSourceMult*nuaTildaas1)) Gauss linear;
    div((momentumSourceMult*nuaTildavol)) Gauss linear;
    
    div(-phi,Uaas1)      bounded Gauss upwind; //linearUpwind limitedGrad;
    div(-phi,Uavol)      bounded Gauss upwind; //linearUpwind limitedGrad;
    div(-phi,nuaTildaas1) bounded Gauss upwind; //linearUpwind limitedGrad;
    div(-phi,nuaTildavol) bounded Gauss upwind; //linearUpwind limitedGrad;
    
    div(-yPhi,daas1) Gauss upwind;
    div(-yPhi,davol) Gauss upwind;
    div(T(pointVolInterpolate(DxDb))) Gauss linear;

}

laplacianSchemes
{
    default         Gauss linear corrected;
}

interpolationSchemes
{
    default         linear;
}

snGradSchemes
{
    default         corrected;
}

wallDist
{
    method 			meshWave;
}


// ************************************************************************* //
