/*--------------------------------*- C++ -*----------------------------------*\
| =========                 |                                                 |
| \\      /  F ield         | OpenFOAM: The Open Source CFD Toolbox           |
|  \\    /   O peration     | Version:  v1912                                 |
|   \\  /    A nd           | Website:  www.openfoam.com                      |
|    \\/     M anipulation  |                                                 |
\*---------------------------------------------------------------------------*/
FoamFile
{
    version     2.0;
    format      ascii;
    class       dictionary;
    location    "system";
    object      fvSolution;
}
// * * * * * * * * * * * * * * * * * * * * * * * * * * * * * * * * * * * * * //

solvers
{
    "p.*|pa.*"
    {
        solver           GAMG;
        smoother		 GaussSeidel;
        tolerance        1e-06;
        relTol           0.001;
    };
    "m|ma"
    {
        solver           PCG;
        preconditioner   DIC;
        tolerance        1e-9;
        relTol           0.01;
    };
    "U.*|Ua.*"
    {
        solver           smoothSolver;
        smoother		 symGaussSeidel;
        tolerance        1e-08;
        relTol           0.001;
    }
    "nuTilda.*|nuaTilda.*"
    {
        solver          smoothSolver;
        smoother        symGaussSeidel;
        tolerance       1e-08;
        relTol          0.001;
    }

    "yWall|da"
    {
        solver           PBiCGStab;
        preconditioner   DILU;
        tolerance        1e-9;
        relTol           0.1;
    }
}

SIMPLE
{
    nNonOrthogonalCorrectors 0;

    /*residualControl
    {
        p               1e-3;
        U               1e-5;
        "nuTilda"       1e-5;
        nut				1e-6;
    }*/
}

relaxationFactors
{
    fields
    {
        "p.*"        0.5;
        "pa.*"       0.5;
    }
    equations
    {
        "U.*"        0.7;
        "Ua.*"       0.7;
        "nuTilda.*"  0.7;
        "nuaTilda.*" 0.7;
        "yWall.*"    0.7;
        "da.*"       0.7;
    }
}


// ************************************************************************* //
