/*--------------------------------*- C++ -*----------------------------------*\
| =========                 |                                                 |
| \\      /  F ield         | OpenFOAM: The Open Source CFD Toolbox           |
|  \\    /   O peration     | Version:  v1912                                 |
|   \\  /    A nd           | Website:  www.openfoam.com                      |
|    \\/     M anipulation  |                                                 |
\*---------------------------------------------------------------------------*/
FoamFile
{
    version     2.0;
    format      ascii;
    class       dictionary;
    object      optimisationDict;
}
// * * * * * * * * * * * * * * * * * * * * * * * * * * * * * * * * * * * * * //

optimisationManager     singleRun;

primalSolvers
{
    p1
    {
        active                 true;
        type                   incompressible;
        solver                 simple;
        useSolverNameForFields false;
        solutionControls //same as system/fvSolution/SIMPLE
        {
            nIters 5000;
            residualControl
            {
            	p               1e-7;
        	U               1e-7;
        	"nuTilda"       1e-7;
        	nut		1e-7;
            }
            averaging
            {
            	average false;
            	//startIter 1000;
            }
        }
        fvOptions{} //source terms from system/fvOptions 
    }
}

adjointManagers
{
    am1
    {
        primalSolver			p1;
        operatingPointWeight	1;
        adjointSolvers
        {
            as1
            {
                // choose adjoint solver
                //----------------------
                active                 true;
                type                   incompressible;
                solver                 adjointSimple;
                useSolverNameForFields false;
                computeSensitivities   true;

                // manage objectives
                //------------------
                objectives
                {
                    type                incompressible;
                    objectiveNames
                    {
                        lossIO
                        {
                        	type			PtLosses;
                            weight          1.;
                            patches         (PRESSURE-INLET PRESSURE-OUTLET);
                        }
                    }
                }

                // ATC treatment
                //--------------
                ATCModel
                {
                    ATCModel          standard;
                    extraConvection   0;
                    nSmooth           0;
                    zeroATCPatchTypes ();
                    maskType          faceCells;
                }

                // solution control
                //------------------
                solutionControls
                {
                    nIters 3000;
                    printMaxMags true; // show maximum values of adjoint fields (stability indication)
                    residualControl
                    {
                        "pa.*"       1.e-7;
                        "Ua.*"       1.e-7;
                        "nuaTilda.*" 1.e-7;
                    }
                }
            }
        }
    }
}

optimisation
{
    sensitivities
    {
        type              surface;
        patches           (PROF);
        includeSurfaceArea  false;
        includeDistance     true;
        includeMeshMovement true;
        includeObjectiveContribution true;
        writeAllSurfaceFiles         true;
        adjointMeshMovementSolver
        {
            iters     1000;
            tolerance 1.e-6;
        }
        adjointEikonalSolver
        {
            iters     1000;
            tolerance 1.e-6;
            epsilon   0.1;
        }
    }
}

// ************************************************************************* //
