/*--------------------------------*- C++ -*----------------------------------*\
| =========                 |                                                 |
| \\      /  F ield         | OpenFOAM: The Open Source CFD Toolbox           |
|  \\    /   O peration     | Version:  v2106                                 |
|   \\  /    A nd           | Website:  www.openfoam.com                      |
|    \\/     M anipulation  |                                                 |
\*---------------------------------------------------------------------------*/
FoamFile
{
    version     2.0;
    format      ascii;
    arch        "LSB;label=32;scalar=64";
    class       polyBoundaryMesh;
    location    "constant/polyMesh";
    object      boundary;
}
// * * * * * * * * * * * * * * * * * * * * * * * * * * * * * * * * * * * * * //

6
(
    PRESSURE-INLET
    {
        type            patch;
        nFaces          96;
        startFace       169079;
    }
    PRESSURE-OUTLET
    {
        type            patch;
        nFaces          96;
        startFace       169175;
    }
    PROF
    {
        type            wall;
        inGroups        1(wall);
        nFaces          722;
        startFace       169271;
    }
    frontAndBackPlanes
    {
        type            empty;
        inGroups        1(empty);
        nFaces          170038;
        startFace       169993;
    }
    PERIOD1
    {
        type            cyclic;
        inGroups        1(cyclic);
        nFaces          502;
        startFace       340031;
        matchTolerance  0.0001;
        transform       translational;
        neighbourPatch  PERIOD2;
        separationVector (0 -0.0476 0);
    }
    PERIOD2
    {
        type            cyclic;
        inGroups        1(cyclic);
        nFaces          502;
        startFace       340533;
        matchTolerance  0.0001;
        transform       translational;
        neighbourPatch  PERIOD1;
        separationVector (0 0.0476 0);
    }
)

// ************************************************************************* //
