/*--------------------------------*- C++ -*----------------------------------*\
| =========                 |                                                 |
| \\      /  F ield         | OpenFOAM: The Open Source CFD Toolbox           |
|  \\    /   O peration     | Version:  v1912                                 |
|   \\  /    A nd           | Website:  www.openfoam.com                      |
|    \\/     M anipulation  |                                                 |
\*---------------------------------------------------------------------------*/
FoamFile
{
    version     2.0;
    format      ascii;
    class       polyBoundaryMesh;
    location    "1/polyMesh";
    object      boundary;
}
// * * * * * * * * * * * * * * * * * * * * * * * * * * * * * * * * * * * * * //

6
(
    PRESSURE-INLET
    {
        type            patch;
        nFaces          164;
        startFace       267718;
    }
    PRESSURE-OUTLET
    {
        type            patch;
        nFaces          164;
        startFace       267882;
    }
    PROF
    {
        type            wall;
        inGroups        1(wall);
        nFaces          828;
        startFace       268046;
    }
    frontAndBackPlanes
    {
        type            empty;
        inGroups        1(empty);
        nFaces          269062;
        startFace       268874;
    }
    PERIOD1
    {
        type            cyclic;
        inGroups        1(cyclic);
        nFaces          766;
        startFace       537936;
        matchTolerance  0.0001;
        transform       translational;
        neighbourPatch  PERIOD2;
        separationVector (0 -0.0476 0);
    }
    PERIOD2
    {
        type            cyclic;
        inGroups        1(cyclic);
        nFaces          766;
        startFace       538702;
        matchTolerance  0.0001;
        transform       translational;
        neighbourPatch  PERIOD1;
        separationVector (0 0.0476 0);
    }
)

// ************************************************************************* //
