/*--------------------------------*- C++ -*----------------------------------*\
| =========                 |                                                 |
| \\      /  F ield         | OpenFOAM: The Open Source CFD Toolbox           |
|  \\    /   O peration     | Version:  v1912                                 |
|   \\  /    A nd           | Website:  www.openfoam.com                      |
|    \\/     M anipulation  |                                                 |
\*---------------------------------------------------------------------------*/
FoamFile
{
    version     2.0;
    format      ascii;
    class       volScalarField;
    object      k;
}
// * * * * * * * * * * * * * * * * * * * * * * * * * * * * * * * * * * * * * //

dimensions      [0 2 -2 0 0 0 0];

internalField   uniform 3;

boundaryField
{
    PRESSURE-INLET
    {
        type            turbulentIntensityKineticEnergyInlet;
        intensity 		0.02;
        value 			$internalField;
    }

    PRESSURE-OUTLET
    {
        type            zeroGradient;
    }

    PROF
    {
        type            kLowReWallFunction;
        value           uniform 0;
    }

    "PERIOD.*"
    { 
    	type 			cyclic; 
	}

    frontAndBack
    {
        type            empty;
    }
}

// ************************************************************************* //
