/*--------------------------------*- C++ -*----------------------------------*\
| =========                 |                                                 |
| \\      /  F ield         | OpenFOAM: The Open Source CFD Toolbox           |
|  \\    /   O peration     | Version:  v1912                                 |
|   \\  /    A nd           | Website:  www.openfoam.com                      |
|    \\/     M anipulation  |                                                 |
\*---------------------------------------------------------------------------*/
FoamFile
{
    version     2.0;
    format      ascii;
    class       volScalarField;
    object      nut;
}
// * * * * * * * * * * * * * * * * * * * * * * * * * * * * * * * * * * * * * //

dimensions      [0 2 -1 0 0 0 0];

internalField   uniform <nuTilda_initial>;

boundaryField
{
    PRESSURE-INLET
    {
        type            fixedValue;
   		value			uniform <nuTilda_inlet>;
        //nut na vstupu pro kOmegaSST vychazi 0.005
    }

    PRESSURE-OUTLET
    {
        type            zeroGradient;
    }

    PROF
    {
        type            fixedValue;
        value           uniform 0;
    }

    "PERIOD.*"
    {
       type 			cyclic;
    }

    frontAndBack
    {
        type            empty;
    }
}

// ************************************************************************* //
