/*--------------------------------*- C++ -*----------------------------------*\
| =========                 |                                                 |
| \\      /  F ield         | OpenFOAM: The Open Source CFD Toolbox           |
|  \\    /   O peration     | Version:  v1912                                 |
|   \\  /    A nd           | Website:  www.openfoam.com                      |
|    \\/     M anipulation  |                                                 |
\*---------------------------------------------------------------------------*/
FoamFile
{
    version     2.0;
    format      ascii;
    class       dictionary;
    location    "system";
    object      fvSolution;
}
// * * * * * * * * * * * * * * * * * * * * * * * * * * * * * * * * * * * * * //

solvers
{
    p
    {
        solver          GAMG;
        tolerance       1e-06;
        relTol          0.001;
        smoother        GaussSeidel;
    }

    U
    {
        solver          smoothSolver;
        smoother        symGaussSeidel; //GaussSeidel;
        //nSweeps         2;
        tolerance       1e-08;
        relTol          0.001;
    }
    
/*	nuTilda
    {
    	solver			smoothSolver;
    	smoother		GaussSeidel;
    	nSweeps			2;
    	tolerance		1e-08;
    	relTol			0.001;
    }
*/

    "k|omega|nuTilda"
    {
        solver          smoothSolver;
        smoother        symGaussSeidel;
        tolerance       1e-08;
        relTol          0.001;
    }
}

SIMPLE
{
    nNonOrthogonalCorrectors 0;

    residualControl
    {
        p               1e-5;
        U               1e-5;
        "k|omega|nuTilda"       1e-5;
        nut				1e-6;
    }
}

relaxationFactors
{
    fields
    {
        p               0.3;
    }
    equations
    {
        U               0.7;
        "k|omega|nuTilda"  0.7;
    }
}


// ************************************************************************* //
