/*--------------------------------*- C++ -*----------------------------------*\
| =========                 |                                                 |
| \\      /  F ield         | OpenFOAM: The Open Source CFD Toolbox           |
|  \\    /   O peration     | Version:  v1912                                 |
|   \\  /    A nd           | Website:  www.openfoam.com                      |
|    \\/     M anipulation  |                                                 |
\*---------------------------------------------------------------------------*/
FoamFile
{
    version     2.0;
    format      ascii;
    class       volVectorField;
    location    "0";
    object      Ua;
}
// * * * * * * * * * * * * * * * * * * * * * * * * * * * * * * * * * * * * * //

dimensions      [ 0 1 -1 0 0 0 0 ];

internalField   uniform ( 0 0 0 );

boundaryField
{
    PRESSURE-INLET
    {
        type            adjointInletVelocity;
        value			uniform ( 0 0 0 );
    }

    PRESSURE-OUTLET
    {
        type            adjointOutletVelocity;
        value			uniform ( 0 0 0 );
    }

    PROF
    {
        type            adjointWallVelocity;
        value			uniform ( 0 0 0 );
    }

    "PERIOD.*"
    {
        type cyclic;
    }
    
    frontAndBack
    {
        type            empty;
    }
}


// ************************************************************************* //
